tests/data/pwf/20240820_C_06-30.pwf
(ARQUIVO GRAVADO A PARTIR DO PROGRAMA ORGANON)
TITU
ONS * PARPEL 2023-2027 * VER�O 2026/2027 PESADA * 20240820 10:48:48
DOPC
(Op) E (Op) E (Op) E (Op) E (Op) E (Op) E (Op) E (Op) E (Op) E (Op) E
NEWT L STEP L CREM L CELO L 
RCVG L RMON L MOST L MOSG L MOSF L FILE L CONT L
QLIM L
CTAP D
TAPD D
CSCA D
CPHS D
99999
DCTE
(Mn) ( Val) (Mn) ( Val) (Mn) ( Val) (Mn) ( Val) (Mn) ( Val) (Mn) ( Val)
BASE 100.  
TEPA .1    
TEPR .1    
VFLD 80.   
99999
DBAR
(Num)OETGb(   nome   )Gl( V)( A)( Pg)( Qg)( Qn)( Qm)(Bc  )( Pl)( Ql)( Sh)Are(Vf)M(1)(2)(3)(4)(5)(6)(7)(8)(9)(10
   10 L1ZZANGRA1UNE001AA 9199.04654.5-33.3 -70. 240.       30.414.72     2511000                               
   11 L1ZZANGRA2UNE001AA 9009.241331.-39.2-350. 600.      61.7529.93     2511000                               
   12 L1ZZLCBARRUHE005AA1006 -2.125.1-73.2 -90.  70.                     2041000                               
   13 L1ZYLCBARRSIN000AA1006-5.7   0.-77.2-140.  70.                     2041000                               
   14 L1ZZFUNIL-UHE003AA 983-4.350.56-16.2 -50.  50.      1.083   0.     2551000                               
   16 L1ZZFURNASUHE006AA1031-6.2   0.   0.   0.   0.                     3521000                               
   17 L1ZYFURNASSIN001AA 901-6.3   0.-304.-320. 160.        3.8   0.     3521000                               
   18 L1ZZITUMBIUHE005AA10204.99   0.   0.   0.   0.                     3511000                               
   19 L1ZYITUMBISIN000AA10204.99   0.   0.   0.   0.                     3511000                               
   20 L1ZZMARIMBUHE006AA1030-3.7169.5-102.-160. 160.                     3511000                               
   21 L1ZZMANSO-UHE004AA 95013.864.34-29.2 -40.  42.                     4721000                               
   22 L1ZZM.MORAUHE005AA1030-2.374.54-24.2 -40.  42.       1.71   0.     3521000                               
   23 L1ZYC.BRAVSIN000AA103636.7   0.   0.   0.   0.                     5131000                               
   24 L1ZZM.MORBUHE003AA 967-8.8   0.   0.   0.   0.       1.14   0.     2081000                               
   27 L ZXCPAUL2-SP500AB1041 -9.                                         2021000                               
   28 L1ZZPCOLOMUHE003AA 994-10.61.25-39.9 -50.  50.      1.473   0.     2081000                               
   30 L1ZZSCRU19UTE000AA 992-2.9   0.   0.   0.   0.                     2541000                               
   31 L1ZZSCRU13UTE000AA 949-2.9   0.   0.   0.   0.                     2541000                               
   32 L1ZZSCRU16UTE000AA 992-2.9   0.   0.   0.   0.                     2541000                               
   35 L1ZZCORUMBUHE003AA 95213.392.47-73.1-120. 120.                     5121000                               
   36 L1ZZS.MESAUHE003AA 97639.9266.2-6.21-160. 160.                     5111000                               
   37 L1ZYS.MESASIN000AA 98035.9   0.   0.   0.   0.                     5111000                               
   38 L1ZWGRAJA2SIN001AA1024-3.9   0.-69.6-120. 200.                     2511000                               
   41 L1ZYVITOR2SIN001AA100712.2   0.-5.98 -30.  60.                     3021000                               
   44 L1ZWGRAJA1SIN001AA1027-3.8   0.-68.9-120. 200.                     2511000                               
   46 L ZVCAMPO-CER015AC104417.2                                         2521000                               
   47 L1ZYVITORISIN001AA100812.2   0.-5.96 -30.  60.                     3021000                               
   48 L1ZUIBIUNASIN004AA1038-26.   0.38.17-720.1200.    86               2041000                               
   50 L1ZUTPRETOSIN001AA 901-26.   0.-168.-180. 300.                     2011000                               
   52 L ZTP.ACU--RJ345AA1036 21.                                         2521000                               
   53 L1ZUGNA1G-UTE003AA1028 26.857.4-39.9-293.616.5                     2521000                               
   54 L1ZUGNA1V-UTE001AA1036 21.   0.   0.   0.   0.                     2521000                               
   56 L ZSIVAIP3-PR069AC 897-27.                                         2011000                               
   57 L ZSIVAIP2-PR069AC 971-27.                                         2011000                               
   58 L ZVIVAIP2-PR000AH1096-27.                                         2011000                               
   59 L ZVIVAIP3-PR000AH 952-27.                                         2011000                               
   60 L ZRF.IGUA-PR765AD 995-23.                                         2011000                               
   61 L ZXFOZ60--PR500AB1031-22.                                         1011000                               
   62 L ZRIV-FZ1CAP765AD1043-26.                                         2011000                               
   63 L ZRIV-FZ2CAP765AD1043-26.                                         2011000                               
   64 L ZRIV-FZ3CAP765AD1040-26.                                         2011000                               
   65 L ZRIVAIPO-PR765AD1046-25.                                         2011000                               
   66 L ZQIVAIPA-PR525AE1013-26.                                         1011000                               
   67 L ZSIVAIP1-PR069AC 969-27.                           .228   0.     2011000                               
   68 L ZVIVAIP1-PR000AH1097-27.                                         2011000                               
   69 L ZRIV-IT1CAP765AD1041-25.                                         2011000                               
   70 L ZRIV-IT2CAP765AD1041-25.                                         2011000                               
   71 L ZRIV-IT3CAP765AD1041-25.                                         2011000                               
   72 L ZRITABER-SP765AD1045-24.                                         2011000                               
   73 L ZRIT-TP1CAP765AD1017-25.                                         2011000                               
   74 L ZRIT-TP2CAP765AD1017-25.                                         2011000                               
   75 L ZRIT-TP3CAP765AD1015-25.                                         2011000                               
   76 L ZRTPRETO-SP765AD 993-23.                                         2011000                               
   77 L ZXTPRETO-SP500AB1058-20.                                         2021000                               
   78 L ZTTPRETO-SP345AA1025-26.                                         2041000                               
   79 L ZSTPRETO-SP069AC1029-20.                                         2011000                               
   80 L ZVTPRET3-SP000AH1095-20.                                         2011000                               
   81 L ZVTPRET4-SP000AH 947-26.                                         2011000                               
   82 L ZTTPRET2-SP345AA 992-25.                                         2041000                               
   84 L ZPRESEN2-RJ138AA1014-7.5                                         2551000                               
   85 L ZXFOZ50--PR500AB 909 -9.                            57.   0.     2411000                               
   86 L ZTIBIUNA-SP345AA1049-26.                                         2041000                               
   87 L ZXRESEND-RJ500AB1030 -6.                                         2511000                               
   90 L ZTVIANA--ES345AA102614.5                                         3021000                               
   91 L ZWVIANT1-ES013AC 99012.8                                         3021000                               
   92 L ZXSB-SM1CAP500AB102017.8                                         5111000                               
   93 L ZXSB-SM2CAP500AB102519.7                                         5111000                               
   94 L ZXSB-SM3CAP500AB103019.1                                         5111000                               
   95 L ZWVIANT2-ES013AC 99012.8                                         3021000                               
   96 L ZWVIANT3-ES013AC 98812.8                                         3021000                               
   99 L ZXAS-AR1-SP500AB1045-19.                                         2021000                               
  100 L ZXMARIMB-MG500AB1062-6.5                                         3511000                               
  101 L ZXARARAQ-SP500AB1061-16.                                         2021000                               
  102 L ZXP.CALD-MG500AB1068-13.                                         3511000                               
  103 L ZXCAMPIN-SP500AB1051-21.                                         2021000                               
  104 L ZXC.PAUL-SP500AB1041-9.1                                         2021000                               
  105 L ZXANGRA--RJ500AB1009 .85                                         2511000                               
  106 L ZXADRIAN-RJ500AB1023-.95                                         2511000                               
  107 L ZXGRAJAU-RJ500AB1022-2.1                                         2511000                               
  108 L ZXS.JOSE-RJ500AB1019-1.4                                         2511000                               
  109 L ZXBYPSAD-RJ500AB1023-.99                                         2511000                               
  110 L ZVGR1T52-RJ000AH1047-3.8                                         2511000                               
  112 L ZXBA-IB1-PR500AB1093-30.                                         1011000                               
  113 L ZXBA-IB2-PR500AB1093-30.                                         1011000                               
  114 L ZXBA-IT1-PR500AB1093-30.                                         1011000                               
  115 L ZXBA-IT1CAP500AB1056-38.                                         1011000                               
  116 L ZPIMBTAP-RJ138AA1015-.11                                         2561000                               
  117 L ZXCAMPO2-RJ500AB109210.2                                         2511000                               
  118 L ZVBANDT4-GO000AH 9939.27                                         5121000                               
  119 L ZWBANDT4-GO013AC 9939.27                                         5121000                               
  120 L ZTP.CALD-MG345AA1013-16.                                         3521000                               
  121 L ZVPCAT51-MG000AH1094-16.                                         3511000                               
  122 L ZXIBIUNA-SP500AB1100-26.                                         2021000                               
  123 L ZTCAMPIN-SP345AA1002-23.                                         2041000                               
  124 L ZVCAMP51-SP000AH1063-23.                                         2021000                               
  125 L ZXIB-BA1CAP500AB1042-23.                                         2021000                               
  126 L ZTGUARUL-SP345AA1026-27.                                         2041000                               
  127 L ZTMO-RL1-SP345AA1006-26.                                         2041000                               
  128 L ZTMO-RL2-SP345AA1006-26.                                         2041000                               
  129 L ZTMOGI---SP345AA1000-26.                                         2041000                               
  130 L ZXIB-BA2CAP500AB1042-23.                                         2021000                               
  131 L ZTM.MORA-MG345AA1059-6.6                                         3521000                               
  133 L ZVADRT1A-RJ000AH1003-.15                                         2521000                               
  134 L ZTLCBARR-SP345AA1046-5.7                                         2041000                               
  135 L ZVJACT1A-RJ000AH1014-3.7                                         2521000                               
  136 L ZTFURNAS-MG345AA1031-6.2                                         3521000                               
  137 L ZVJACT2A-RJ000AH1014-3.7                                         2521000                               
  138 L ZTITUTIN-MG345AA1031-.76                                         3521000                               
  139 L ZVADRT51-RJ000AH 923 -.3                                         2511000                               
  140 L ZTADRIAN-RJ345AA1012 -.2                                         2521000                               
  141 L ZVADRT53-RJ000AH1014.007                                         2511000                               
  142 L ZVADRT55-RJ000AH1010-.03                                         2511000                               
  143 L ZVADRT2B-RJ000AH1007-.15                                         2521000                               
  144 L ZTJACARE-RJ345AA1004-1.8                                         2521000                               
  145 L ZVADRT1B-RJ000AH1000-.15                                         2521000                               
  146 L ZVADRT2A-RJ000AH1000-.15                                         2521000                               
  147 L ZTCAMPOS-RJ345AA103817.2                                         2521000                               
  148 L ZVCAMPO1-RJ000AH103715.3                                         2521000                               
  149 L ZTVITORI-ES345AA101812.2                                         3021000                               
  150 L ZVVITAT1-ES000AH10069.37                                         3021000                               
  152 L ZVVITAT2-ES000AH10069.39                                         3021000                               
  153 L ZVVITAT3-ES000AH10059.25                                         3021000                               
  154 L ZWVITAT2-ES013AC10239.39                                         3021000                               
  155 L ZWVITAT3-ES013AC10229.25                                         3021000                               
  156 L ZWVITAT4-ES013AC10229.52                                         3021000                               
  158 L ZVVITAT4-ES000AH10079.52                                         3021000                               
  159 L ZWJA-R30-RJ013AC 985-3.7                                         2521000                               
  160 L ZWJB-R60-RJ013AC 986-3.8                                         2521000                               
  161 L ZOMO-FCE-SP230AA1016-26.                                         2051000                               
  162 L ZVCAMAT1-SP000AH1056-25.                                         2041000                               
  163 L ZWCAMPI1-SP013AC 995-25.                                         2041000                               
  164 L ZVPCAT02-MG000AH1023-18.                                         3521000                               
  165 L ZWP.CAL2-MG013AC 960-18.                                         3521000                               
  166 L ZVJACT1B-RJ000AH1011-3.8                                         2521000                               
  167 L ZWJA-R60-RJ013AC 985-3.7                                         2521000                               
  169 L ZPSJOSE2-RJ138AA1003-2.2                                         2541000                               
  170 L ZPP.CALD-MG138AA1036-18.                                         3591000                               
  171 L ZPCAMPI1-SP138AA1016-25.                            .96   0.     2071000                               
  172 L ZPIMBARE-RJ138AA 992-3.5                                         2561000                               
  173 L ZPADRIAN-RJ138AA1017-.15                                         2561000                               
  174 L ZPR.LEAO-RJ138AA102111.4                                         2581000                               
  175 L ZPCAMPOS-RJ138AA102815.4                           .218   0.     2591000                               
  176 L ZVCAMP54-SP000AH 903-23.                                         2021000                               
  177 L ZPVITOR1-ES138AA10169.68                                         3041000                               
  178 L ZPGRAJAU-RJ138AA 997-3.7                                         2541000                               
  179 L ZVGR2T54-RJ000AH1044-3.9                                         2511000                               
  180 L ZPJACAR2-RJ138AA 994-3.6                                         2541000                               
  181 L ZPANGDEF-RJ138AA1005-3.5                                         2511000                               
  182 L ZPFUNIL--RJ138AA1003-7.5                                         2551000                               
  183 L ZPC.PAUL-SP138AA1027-9.2                                         2141000                               
  184 L ZPS.CRUZ-RJ138AA 992-2.9                                         2541000                               
  185 L ZPANGRA--RJ138AA10053.03                           2.661.283     2551000                               
  186 L ZWCAMP54-SP013AC 903-23.                                         2021000                               
  187 L ZPM.MORA-MG138AA1040-8.7                                         3581000                               
  189 L ZVBGERT1-DF000AH100119.3                                         5631000                               
  190 L ZPP.COL--MG138AA1022-12.                                         2081000                               
  192 L ZWCAMPO1-RJ013AC103715.3                                         2521000                               
  194 L ZWADRT55-RJ013AC 925-.03                                         2511000                               
  195 L ZWADRT53-RJ013AC 930.007                                         2511000                               
  196 L ZWCAMP51-SP013AC 974-23.                                         2021000                               
  197 L ZWADRT51-RJ013AC 923 -.3                                         2511000                               
  198 L ZWPCALAT-MG013AC1003-16.                                         3511000                               
  199 L ZWVITAT1-ES013AC10239.37                                         3021000                               
  200 L ZVUCAMP1-RJ000AH103913.2                                         2591000                               
  201 L1ZZRSIL-1UTE000AA103912.9   0.   0.   0.   0.      1.026   0.     2591000                               
  202 L ZVUCAMP2-RJ000AH103913.2                                         2591000                               
  203 L ZZRSIL-2UTE000AA103912.9                          1.026   0.     2591000                               
  204 L ZWADRT1B-RJ013AC1000-.15                                         2521000                               
  205 L ZWADRT2A-RJ013AC1000-.15                                         2521000                               
  206 L ZWADRT2B-RJ013AC1007-.15                                         2521000                               
  208 L ZWBGERT1-DF013AC100119.3                                         5631000                               
  209 L ZWADRT1A-RJ013AC1003-.15                                         2521000                               
  210 L ZXITUMBI-MG500AB10714.99                                         3511000                               
  211 L ZVCAMPO2-RJ000AH103815.3                                         2521000                               
  212 L ZWCAMPO2-RJ013AC103815.3                                         2521000                               
  213 L ZTMARIMB-MG345AA1014-4.6                                         3521000                               
  214 L ZVMARIMB-MG000AH1017-4.1                                         3511000                               
  216 L ZTP.COL--MG345AA1027-2.7                                         3521000                               
  217 L ZTITUMBI-MG345AA10225.97                                         3521000                               
  218 L ZTBANDEI-GO345AA 99911.3                                         5121000                               
  219 L ZTB.SUL--DF345AA100123.7                                         5621000                               
  220 L ZTCORUMB-GO345AA101210.8                                         5121000                               
  221 L ZNB.GERA-DF034AA100119.5                                         5641000                               
  222 L ZVBSULT6-DF000AH101121.9                                         5621000                               
  223 L ZVBANDT1-GO000AH 9939.17                                         5121000                               
  224 L ZVBANDT2-GO000AH 9938.99                                         5121000                               
  225 L ZOITUMBI-MG230AA10385.65                                         3531000                               
  226 L ZOBANDEI-GO230AA10199.47                                         5131000                               
  227 L ZOB.GERA-DF230AA101022.1                                         5631000                               
  228 L ZOB.SUL--DF230AA100922.2                                         5631000                               
  229 L ZOB.ALTO-GO230AA101919.8                                         5131000                               
  230 L ZOS.MESA-GO230AA1029 34.                                         5131000                               
  231 L ZOR.VERD-GO230AA10274.81                                         5131000                               
  232 L ZWBSULT6-DF013AC101121.9                                         5621000                               
  233 L ZXSAMAMB-DF500AB101727.1                                         5611000                               
  234 L ZTSAMAMB-DF345AA100224.5                                         5621000                               
  235 L ZXS.MESA-GO500AB102935.9                                         5111000                               
  236 L ZPB.SUL--DF138AA102922.9                           .921   0.     5641000                               
  237 L ZPSAMAMB-DF138AA1017 24.                                         5641000                               
  238 L ZPR.VERD-GO138AA10033.38                           .123   0.     5171000                               
...
99999
DLIN
(De )d O d(Pa )NcEP ( R% )( X% )(Mvar)(Tap)(Tmn)(Tmx)(Phs)(Bc  )(Cn)(Ce)Ns(Cq)(1)(2)(3)(4)(5)(6)(7)(8)(9)(10
   27        87 1     .051  .782  66.5                          18552337  2337                              
   27      1503 1     .052  .792  66.5                          18552337  2337                              
   27      3010 1     .189 3.158709.66                          24423464  3464                              
   27      3010 2     .189 3.158709.66                          24423464  3464                              
   27      3383 1     .014  .20530.353                          27282728  2728                              
   38       17954         3.0195         1.                     200.200.   75.                              
   44       11052             3.         1.                     200.200.  100.                              
   50        81 4          2.498         1.                     500.500.  225.                              
   52       147 1      .16 1.64627.714                          12751492  1492                              
   52       147 2      .16 1.64627.714                          12751492  1492                              
   53        52 1          1.085         1.                     99999999  370.                              
   54        52 1          2.186         1.                     99999999  550.                              
   56        59 3          3.385         1.                     550.550.  251.                              
   57        58 2          3.606         1.                     550.550.   73.                              
   60        62 1     .076  1.85 927.8                          36844173  3684                              
   60        63 2     .076  1.85 929.1                          36844173  3684                              
   60        64 3     .082 1.899954.57                          36844173  3684                              
   60     43810 2           .806      .9524                     16501815  1880                              
   60     43862 1           .743      .9524                     16501815  1880                              
   60     43899 3            .74      .9524                     16501815  1880                              
   60     43915 4           .746      .9524                     16501815  1880                              
   60     43921 5           .731      .9524                     16501980  2309                              
   61     43421 1     .116 1.999 245.8                          29103624  3624                              
   61     43422 2     .116 1.999 245.8                          29103624  3624                              
   61     43810 2 T        -.164         1.                     99999999  9999                              
   61     43862 1 T        -.121         1.                     99999999  9999                              
   61     43899 3 T        -.117         1.                     99999999  9999                              
   61     43915 4 T        -.123         1.                     99999999  9999                              
   61     43921 5 T        -.114         1.                     99999999  9999                              
   65        58 2           .823         1.                     16501650  115.                              
   65        59 3           .773         1.                     16501833  2598                              
   65        68 1           .843         1.                     16501815  1650                              
   66        68 1 T         -.17      .9377 .8381.053        99916501815321815                              
   67        68 1          3.649         1.                     550.550.  1650                              
   69        72 1     .064  1.53  760.                          41334174  4133                              
   72        70 2     .063  1.53 755.7                          41334174  3684                              
   72        71 3     .064  1.54  760.                          41334174  3684                              
   73        76 1     .072  1.75 877.5                          41334174  4133                              
   76        74 2     .072  1.75  873.                          41334174  3684                              
   76        75 3     .078  1.79 898.2                          41334174  3684                              
   76        80 3           .697         1.                     16501815   60.                              
   76        81 4          1.028         1.                     15001650  118.                              
   76     41512 5           .993         1.                     15001650  1500                              
   76     41514 6           .983         1.                     15001650  1500                              
   76     41516 7           .931         1.                     15001800  1500                              
   76     41518 1           .839         1.                     16501650  1650                              
   76     41520 2           .817         1.                     16501815  1650                              
   77        80 3 T         -.03      .9704  .88 1.16         771650181532150.                              
   77       104 1     .167  2.54 216.6                          18552337  1855                              
   77       598 1     .106 1.441 133.4                          18552252  1855                              
   77      3383 1     .114 1.712259.62                          27282728  2728                              
   77     41518 1 T        -.165      1.155  .88 1.16         7716501650331650                              
   77     41520 2 T        -.162      1.155  .88 1.16         7716501815331650                              
   78        81 4 T        -.107      1.079 .8591.115         781500165032103.                              
   78       449 1    .0742 .6448 11.34                          11841392  1392                              
   78       449 2    .0742 .6448 11.34                          11841392  1392                              
   78       464 3    .1089  .97317.073                          912.1103  912.                              
   78       471 1    .0922 .8014 14.08                          11841392  1184                              
   78       471 2    .0922 .8014 14.08                          11841392  1184                              
   78       474 1     .062  .85819.827                          12801613  1280                              
   78     41512 5 T        -.093      1.115 .8591.115         7815001650331500                              
   78     41820 1    .0071 .0071                                99999999  9999                              
   78     41823 1    .0071 .0071                                99999999  9999                              
   79        80 3          3.545         1.                     550.550.  150.                              
   82       420 1     .126 1.19925.641                          912.1103  912.                              
   82       449 3      .06   .6312.845                          13501350  300.                              
   82       449 4      .06   .6312.845                          13501350  100.                              
   82       464 1    .1066 .9279 16.08                          912.1103  100.                              
   82       464 2    .1066 .9279 16.08                          912.1103  100.                              
   82     41514 6 T        -.092      .9346 .8591.115         8215001650331500                              
   82     41516 7 T        -.058      .9354 .8591.115         8215001800331500                              
   82     41821 1    .0071 .0071                                99999999  9999                              
   82     41822 1    .0071 .0071                                99999999  9999                              
   84      1780 1       .7  1.78  .454                          120.120.  120.                              
   84      1780 2       .7  1.78  .454                          120.120.  120.                              
   84     11797 1      .32  .815  .208                          122.130.  122.                              
   84     21797 1      .32  .815  .208                          122.130.  122.                              
   84     42417 1     .004-1.667         1.                     300.360.  300.                              
   85      1103 3    .0058 .100710.041                          27283377  3377                              
   85      1103 4    .0056 .0979 9.691                          27283377  3377                              
   86        48 1         .71475      1.013                     10501050  1050                              
   86        82 1     .187 2.602  60.1                          12801613  300.                              
   86       474 1      .16 2.25252.045                          12801613  1280                              
   86       488 1    .09481.4987 41.91                          20202390  2390                              
   86       488 2    .09481.4987 41.91                          20202390  2390                              
   86     41522 1           -.25      1.002 .8951.048       -122750.750.33750.                              
   86     41524 2          -.254      1.002 .8951.048       -122750.750.33750.                              
   86     41526 3           .236      1.003 .8951.048       -122750.900.33750.                              
   87      9605 1     .081 1.221 106.8                          18552337  1855                              
   87     42417 1 T   .121 4.833        .99   .9  1.1        -84300.360.21300.                              
   87     42426 1          8.333         1.                     150.180.  150.                              
   87     42428 2         11.458         1.                     120.144.  144.                              
   90      2608 1          4.847      1.005                     225.270.   51.                              
   90      2618 2          4.861      1.005                     225.270.  150.                              
   90      2628 3           4.65      1.005                     225.270.  100.                              
   90      3032 1     .225 2.46841.546                          747.747.  853.                              
   90     42441 4          3.081      1.005                     400.480.  400.                              
   91      2608 1            9.7         1.                      75. 75.   75.                              
   95      2618 2          9.773         1.                      75. 75.   75.                              
   96      2628 3           9.83         1.                      75. 75.   75.                              
   99       101 1     .198 3.098317.55                          19061906  1906                              
   99       556 1   .00707.00707       1.05                     99999999   50.                              
  100        20 1           3.16         1.                     15201520  1520                              
  100       214 9          2.979      1.048  .95 1.05       -213560.717.32560.                              
  100       535 1 T   .153 2.356 203.8                          17321732  1732                              
  100      3110 1    .12531.8381160.42                          19922390  1992                              
  100      4598 1     .006  .097   7.4                          18552337  1855                              
  100      4598 2     .006  .086   7.2                          18552337  1855                              
  100      4598 3    .0064 .0824 7.177                          19922390  1992                              
  101       102 1     .156  2.46 208.5                          18552337  1855                              
  101       103 1      .15  2.39 202.6                          18552337  1855                              
  101      4598 1     .179 2.762236.42                          18552337  1855                              
  101      4598 2     .178 2.748236.83                          18552337  1855                              
  102       12151          2.911         1.                     600.720.  720.                              
  102      1503 1     .129 1.993 167.7                          18552337  1855                              
  103       12451          2.946       1.05                     560.717.  560.                              
  103       17654         2.9116       1.05                     560.728.  560.                              
  103       609 1      .06  .946 76.26                          18552337  1855                              
  103      6609 1     .024  .368  31.7                          18552337   61.                              
  103      6609 2     .017  .26738.833                          24773464  2337                              
  104        27 1    .0071 .0071                                99999999  9999                              
  104       598 1     .075  1.15  98.9                          18552252  1855                              
  104       609 1     .148 2.347193.31                          18552337  1855                              
  104      9626 1     .098  1.68252.04                          24732598   72.                              
  104     4166457         4.7375       1.05                     250.262.  250.                              
  104     4166659         4.9492       1.05                     250.270.  250.                              
  105        10 1           1.97      1.075                     759.759.  759.                              
  105        11 1            .95        1.1                     14501450  1450                              
  105        27 1     .093 1.456122.54                          18552337  2337                              
  105      9601 1     .092 1.363115.34                          18552337  558.                              
  105      9608 1     .101 1.518127.82                          18552337  1855                              
  105     4240158          3.988       1.05                     400.400.  210.                              
  106       108 1     .019  .389  42.1                          25982598  2598                              
  106       109 1    .0071 .0071                                99999999   15.                              
  106       13951          1.962       1.05                     560.644.  2598                              
  106       14153          3.042       1.05                     560.672.  560.                              
  106       14255           2.93       1.05                     560.717.  560.                              
  107       109 1     .033  .67372.576                          25982598   83.                              
  107       11052          2.141       1.05                     600.720.   75.                              
  107       17954           2.15       1.05                     600.720.  150.                              
  107     4240756          2.142       1.05                     600.720.  600.                              
  107     4240858          2.114       1.05                     600.720.  600.                              
  108     4243111          2.327       1.05                     600.660.  600.                              
  108     4243212            2.3       1.05                     600.660.  600.                              
  108     4243313           2.27       1.05                     600.720.  600.                              
  108     4243414          2.288       1.05                     600.720.  600.                              
  109      9626 1     .012  .19329.698                          24732598   72.                              
  112       895 1   .00707.00707       1.05                     12992252  2252                              
  113       895 2   .00707.00707       1.05                     12992252  2252                              
  114       895 1   .00707.00707       1.05                     99999999  9999                              
  115      6609 1     .263  4.25  659.                          26163715  2616                              
  116       173 1      .62  3.61 1.033                          153.193.  146.                              
  117      4353 1     .135 2.435361.21                          28023403  2802                              
  117      4353 2     .135 2.435361.21                          28023403  2802                              
  119       118 4         15.049         1.                      75. 75.   75.                              
  120       12151 T        -.522      .9325   .9  1.1        120600.720.33720.                              
  120       126 1       .6  5.95  92.8                          776.977.  853.                              
  120       126 2     .606  6.02  93.8                          776.977.  853.                              
  120       164 2          8.275       .957                     150.160.  150.                              
  120       697 1     .394  4.39 74.85                          853.1075  125.                              
  120     42000 1          7.754         1.                     150.160.  160.                              
  120     42002 3          8.027         1.                     150.161.  161.                              
  120     42004 4            7.2         1.                     150.150.  150.                              
  120     42006 5           4.54         1.                     225.270.  315.                              
  120     42008 6          4.556         1.                     225.270.  315.                              
  122      6609 1     .079 1.214 103.2                          18552337  1855                              
  122     41522 1 T       1.8016       1.05                     750.750.  750.                              
  122     41524 2 T       1.7995       1.05                     750.750.  750.                              
  122     41526 3 T       1.2804       1.05                     750.900.  750.                              
  123       120 1 T   .359 3.945  66.7                          853.1075  853.                              
  123       12451 T        -.528      .9552  .95 1.11        123560.717.17560.                              
  123       162 1          5.563      1.004                     150.176.  166.                              
  123       17654 T        -.413      1.093  .95 1.11        123560.728.17560.                              
  123     41504 2            5.6      1.004                     150.176.  166.                              
  123     41505 3         6.0166      1.004                     150.176.  166.                              
  123     41506 4         5.6033      1.004                     150.176.  166.                              
  123     41507 5           5.63      1.004                     150.176.  166.                              
  125       112 1     .308 3.958444.84                          12992252  2252                              
  126        86 1     .109 1.826  51.2                          17072150  218.                              
  126        86 2     .109 1.824  51.2                          17072150  269.                              
  126       123 1     .252 2.761  46.5                          853.1075  853.                              
  126       442 1     .116 1.13217.708                          776.977.  558.                              
  129       697 1      .18  2.03 34.67                          717.717.  125.                              
  129     41660 1          2.436         1.                     500.590.  500.                              
  129     41662 2          2.339         1.                     500.590.  500.                              
  130       113 2     .308 3.958444.84                          12992252  2252                              
  131        22 1          11.08         1.                     378.378.  378.                              
  131      3012 1     .038  .427 6.673                          853.1075  853.                              
  131     4202211          2.686         1.                     400.480.  400.                              
  131     4202413          2.526         1.                     400.480.  400.                              
  134        12 1           5.34       .999                     11361136  1136                              
  134        13 1           5.34       .999                     99999999  100.                              
  134       120 1      .56  6.16 105.3                          853.1075  853.                              
  134       120 2      .55  6.13 107.7                          853.1075  853.                              
  134      3012 1     .071  .75512.922                          853.1075  853.                              
  134      3012 2     .071  .75512.792                          853.1075  853.                              
  136        16 1           1.28         1.                     12801280  1280                              
  136        17 1           3.84         1.                     99999999  100.                              
  136       120 1      .44   4.3  66.6                          776.977.  776.                              
  136       120 2      .44  4.33  66.6                          776.977.  776.                              
...
99999
DCSC
(De ) O  (Pa )NcEPB      (Xmin)(Xmax)( Xv )C ( Vsp) (Ext)Nst(Cn)(Ce)(Cq)(1)(2)(3)(4)(5)(6)(7)(8)(9)(10
   62       65 1           -.73  -.73  -.73X   -.73    62   999999999999
   63       65 2           -.73  -.73  -.73X   -.73    63   999999999999
   64       65 3           -.73  -.73  -.73X   -.73    64   999999999999
   65       69 1          -.778 -.778 -.778X  -.778    65   999999999999
   65       70 2          -.778 -.778 -.778X  -.778    65   999999999999
   65       71 3          -.778 -.778 -.778X  -.778    65   999999999999
   72       73 1          -.915 -.915 -.915X  -.915    72   368441733683
   72       74 2          -.915 -.915 -.915X  -.915    72   368441733683
   72       75 3          -.915 -.915 -.915X  -.915    72   368441733683
   78       82 1                       1.26X   1.26    78   450.450.598.
  114      115 1         -2.124-2.124-2.124X -2.124   114   193121241931
  122      125 1         -2.051-2.051-2.051X -2.051   122   19312251532.
  122      130 2         -2.051-2.051-2.051X -2.051   122   19312251532.
  127      129 1                        .76X    .76   127   956.956.912.
  128      129 2                        .76X    .76   128   956.956.912.
  225     4504 1          -5.93 -5.93 -5.93X  -5.93   225   210.265.150.
  225     4505 2          -9.53 -9.53 -9.53X  -9.53   225   438.478. 75.
  231     4507 1          -5.93 -5.93 -5.93X  -5.93   231   210.265. 93.
  231     4511 2         -11.27-11.27-11.27X -11.27   231   438.478.160.
  233       92 1 T        -1.86 -1.86 -1.86X  -1.86   233   173220782078
  233       93 2 T        -1.27 -1.27 -1.27X  -1.27   233   173220782078
  233       94 3 T        -1.27 -1.27 -1.27X  -1.27   233   173220782078
  235     7236 1          -.637 -.637 -.637X  -.637   235   173223381732
  235     7237 2          -.637 -.637 -.637X  -.637   235   173223381732
  299     3005 1          -.986 -.986 -.986X  -.986   299   160221636666
 3007     3006 1          -.986 -.986 -.986X  -.986  3007   16002163288.
 3007     3050 1          -.856 -.856 -.856X  -.856  3007   207828062078
 4502     4540 2         -6.127-6.127-6.127X -6.127  4502   438.592.160.
 4502     4541 1         -5.959-5.959-5.959X -5.959  4502   233.294. 50.
 4510      231 1          -6.51 -6.51 -6.51X  -6.51  4510   210.265. 30.
 4522     4524 1          -5.73 -5.73 -5.73X  -5.73  4522   398.538.225.
 4531     4588 3         -1.675-1.675-1.675X -1.675  4531   187125252460
 4565     4496 3          -1.47 -1.47 -1.47X  -1.47  4565   170723042716
 4565     4497 2         -1.629-1.629-1.629X -1.629  4565   170723042716
 4565     4563 1         -1.628-1.628-1.628X -1.628  4565   170723042716
 4574     4565 3         -1.515-1.515-1.515X -1.515  4574   160721692716
 4578     4565 1         -2.064-2.064-2.064X -2.064  4578   160721692716
 4579     4565 2         -2.064-2.064-2.064X -2.064  4579   160721692716
 5436     5435 3         -1.756-1.756-1.756X -1.756  5436   155919921992
 5436     5437 1         -1.908-1.908-1.908X -1.908  5436   155919921992
 5436     5575 2         -1.908-1.908-1.908X -1.908  5436   155921042104
 5436     5576 4         -1.756-1.756-1.756X -1.756  5436   155921042104
 5570     5577 2         -1.539-1.539-1.539X -1.539  5570   15591992686.
 5580     6517 1         -1.096-1.096-1.096X -1.096  5580   19922685 85.
 6082     6444 5          -.598 -.598 -.598X  -.598  6082   173423412341
 6360     6080 5          -.598 -.598 -.598X  -.598  6360   173423412341
 6360     6443 2          -.554 -.554 -.554X  -.554  6360   173423412341
 6360     6446 2           -.85  -.85  -.85X   -.85  6360   216529222922
 6400     6507 4           -.72  -.72  -.72X   -.72  6400   199226851992
 6400     6509 3           -.72  -.72  -.72X   -.72  6400   19922685127.
 6410     6430 1                         .8X     .8  6410   22522252 47.
 6440     7306 1          -1.58 -1.58 -1.58X  -1.58  6440   164522211645
 6444     6442 1         -.8847-.8847-.8847X -.8847  6444   207828062078
 6444     6445 2          -.554 -.554 -.554X  -.554  6444   173423412341
 6489     6487 1          -5.53 -5.53 -5.53X  -5.53  6489   558.686.150.
 6700     6701 1 T         -.79  -.79  -.79X   -.79  6700   19922685107.
 6700     6702 1         -1.096-1.096-1.096X -1.096  6700   19922685 90.
 6700     6703 2 T         -.79  -.79  -.79X   -.79  6700   19922698139.
 7100     7101 1          -.953 -.953 -.953X  -.953  7100   17322338467.
 7100     7102 1          -.953 -.953 -.953X  -.953  7100   19492631150.
 7100     7103 2           -.95  -.95  -.95X   -.95  7100   17322338 77.
 7100     7104 2           -.95  -.95  -.95X   -.95  7100   19492631 71.
 7100     7105 3          -.952 -.952 -.952X  -.952  7100   19492631100.
 7100     7235 1          -.536 -.536 -.536X  -.536  7100   19492631100.
 7113     7238 1         -1.412-1.412-1.412X -1.412  7113   21652923 20.
 7190     7197 2           -.85  -.85  -.85X   -.85  7190   216529222922
 7200     7201 1           -.95  -.95  -.95X   -.95  7200   19492631150.
 7200     7203 2           -.95  -.95  -.95X   -.95  7200   19492631 54.
 7200     7209 3          -.952 -.952 -.952X  -.952  7200   19492631100.
 7300     7301 1           -.95  -.95  -.95X   -.95  7300   12991949 15.
 7300     7302 1           -.95  -.95  -.95X   -.95  7300   142919491732
 7300     7303 2           -.95  -.95  -.95X   -.95  7300   12991949 34.
 7300     7304 2           -.95  -.95  -.95X   -.95  7300   14291949 60.
 7300     7305 3          -.952 -.952 -.952X  -.952  7300   14441949 47.
 7591     5590 1         -1.588-1.588-1.588X -1.588  7591   142919491429
 7594     5590 2          -.637 -.637 -.637X  -.637  7594   999999999999
 7594     7593 2          -.952 -.952 -.952X  -.952  7594   14291949350.
 8100     8101 1         -1.971-1.971-1.971X -1.971  8100   20182724 86.
 8100     8102 2         -1.971-1.971-1.971X -1.971  8100   20182724125.
 8100     8103 1          -.911 -.911 -.911X  -.911  8100   194021342619
 8100     8104 2          -.911 -.911 -.911X  -.911  8100   194021342619
 8200     8201 1           -.91  -.91  -.91X   -.91  8200   194021342619
 8200     8202 2           -.91  -.91  -.91X   -.91  8200   194021342619
 8200     8203 1         -1.273-1.273-1.273X -1.273  8200   173219052338
 8200     8204 2         -1.273-1.273-1.273X -1.273  8200   173219052338
 8300     8301 1         -1.273-1.273-1.273X -1.273  8300   173219052338
 8300     8302 2         -1.273-1.273-1.273X -1.273  8300   173219052338
 8300     8303 1         -1.219-1.219-1.219X -1.219  8300   164518102221
 8300     8304 2         -1.219-1.219-1.219X -1.219  8300   164518102221
 8400     8401 1         -1.219-1.219-1.219X -1.219  8400   164518102221
 8400     8402 2         -1.219-1.219-1.219X -1.219  8400   164518102221
 8400     8403 1          -.832 -.832 -.832X  -.832  8400   159317532151
 8400     8404 2          -.832 -.832 -.832X  -.832  8400   159317532151
 8500     8405 1          -.832 -.832 -.832X  -.832  8500   159317532151
 8500     8406 2          -.832 -.832 -.832X  -.832  8500   159317532151
43672     4591 1         -1.279-1.279-1.279X -1.279 43672   166524601665
43673     4595 2         -1.356-1.356-1.356X -1.356 43673   251132042460
43797     6898 1          -9.88 -9.88 -9.88X  -9.88 43797   343.462.478.
43798     6899 2          -9.88 -9.88 -9.88X  -9.88 43798   343.462.494.
43799     6934 3         -9.565-9.565-9.565X -9.565 43799   343.462.558.
43800     4508 1          -6.51 -6.51 -6.51X  -6.51 43800   210.265. 30.
43952     5572 5          -1.88 -1.88 -1.88X  -1.88 43952   15152046150.
43953     5574 6          -2.11 -2.11 -2.11X  -2.11 43953   15151559150.
43954     6513 1          -1.37 -1.37 -1.37X  -1.37 43954   168916891921
43955     6512 1          -1.37 -1.37 -1.37X  -1.37 43955   16891689 30.
43956     6515 2          -1.14 -1.14 -1.14X  -1.14 43956   19922598200.
43957     6514 2          -1.14 -1.14 -1.14X  -1.14 43957   19922598400.
43958     6510 1           -.88  -.88  -.88X   -.88 43958   19922685100.
43959     6511 2           -.72  -.72  -.72X   -.72 43959   19922685100.
99999
DCAI
(Num) O  Gr E (U) UOp ( P ) ( Q ) (A) (B) (C) (D) (Vfl) (Vf)
99999
DGEI
(Num) OA Gr E(U)UOpUOn( Pg)( Qg)( Qn)( Qm)(Xtrf) ( Xd)( Xq)( Xl) (fp)( Sn)(Ptu)
99999
DBSH
(NFr) O (NTo) Nc C (Vmn (Vmx Bctrl (Qini) T A (Extr
   27            D 1000 1100        -136. L
(G  O E (U) UOp (Sht ) M
10        1   1  -136. S
FBAN
(NFr) O (NTo) Nc C (Vmn (Vmx Bctrl (Qini) T A (Extr
   27      87  1 D 1000 1100    27  -136. L      27
(G  O E (U) UOp (Sht ) M
10        1   1  -136. S
FBAN
(NFr) O (NTo) Nc C (Vmn (Vmx Bctrl (Qini) T A (Extr
   27    3010  2 F 0100 9999    27  -240. L      27
(G  O E (U) UOp (Sht ) M
10        1   1  -240. N
FBAN
(NFr) O (NTo) Nc C (Vmn (Vmx Bctrl (Qini) T A (Extr
   56            D 0800 1200        -180. L
(G  O E (U) UOp (Sht ) M
10        2   1  -180. S
FBAN
(NFr) O (NTo) Nc C (Vmn (Vmx Bctrl (Qini) T A (Extr
   57            D 0800 1200        -360. L
(G  O E (U) UOp (Sht ) M
10        3   2  -180. S
FBAN
(NFr) O (NTo) Nc C (Vmn (Vmx Bctrl (Qini) T A (Extr
   60      62  1 F 0100 9999    60  -330. L      60
(G  O E (U) UOp (Sht ) M
10        1   1  -330. N
FBAN
(NFr) O (NTo) Nc C (Vmn (Vmx Bctrl (Qini) T A (Extr
   60      63  2 F 0100 9999    60  -330. L      60
(G  O E (U) UOp (Sht ) M
10        1   1  -330. N
FBAN
(NFr) O (NTo) Nc C (Vmn (Vmx Bctrl (Qini) T A (Extr
   60      64  3 F 0100 9999    60  -330. L      60
(G  O E (U) UOp (Sht ) M
10        1   1  -330. N
FBAN
(NFr) O (NTo) Nc C (Vmn (Vmx Bctrl (Qini) T A (Extr
   60      62  1 F 0100 9999    62  -150. L      62
(G  O E (U) UOp (Sht ) M
10        1   1  -150. N
FBAN
(NFr) O (NTo) Nc C (Vmn (Vmx Bctrl (Qini) T A (Extr
   60      63  2 F 0100 9999    63  -150. L      63
(G  O E (U) UOp (Sht ) M
10        1   1  -150. N
FBAN
(NFr) O (NTo) Nc C (Vmn (Vmx Bctrl (Qini) T A (Extr
   60      64  3 F 0100 9999    64  -150. L      64
(G  O E (U) UOp (Sht ) M
10        1   1  -150. N
FBAN
(NFr) O (NTo) Nc C (Vmn (Vmx Bctrl (Qini) T A (Extr
   65            D 0900 1046        -330. L
(G  O E (U) UOp (Sht ) M
10        1   1  -330. S
FBAN
(NFr) O (NTo) Nc C (Vmn (Vmx Bctrl (Qini) T A (Extr
   67            D 0800 1200        -360. L
(G  O E (U) UOp (Sht ) M
10        3   2  -180. S
FBAN
(NFr) O (NTo) Nc C (Vmn (Vmx Bctrl (Qini) T A (Extr
   69      72  1 F 0100 9999    69  -330. L      69
(G  O E (U) UOp (Sht ) M
10        1   1  -330. N
FBAN
(NFr) O (NTo) Nc C (Vmn (Vmx Bctrl (Qini) T A (Extr
   72      70  2 F 0100 9999    70  -330. L      70
(G  O E (U) UOp (Sht ) M
10        1   1  -330. N
FBAN
(NFr) O (NTo) Nc C (Vmn (Vmx Bctrl (Qini) T A (Extr
   72      71  3 F 0100 9999    71  -330. L      71
(G  O E (U) UOp (Sht ) M
10        1   1  -330. N
FBAN
(NFr) O (NTo) Nc C (Vmn (Vmx Bctrl (Qini) T A (Extr
   72            D 0900 1046        -990. L
(G  O E (U) UOp (Sht ) M
10        3   3  -330. S
FBAN
(NFr) O (NTo) Nc C (Vmn (Vmx Bctrl (Qini) T A (Extr
   69      72  1 F 0100 9999    72  -330. L      72
(G  O E (U) UOp (Sht ) M
10        1   1  -330. N
FBAN
(NFr) O (NTo) Nc C (Vmn (Vmx Bctrl (Qini) T A (Extr
   72      70  2 F 0100 9999    72  -330. L      72
(G  O E (U) UOp (Sht ) M
10        1   1  -330. N
FBAN
(NFr) O (NTo) Nc C (Vmn (Vmx Bctrl (Qini) T A (Extr
   72      71  3 F 0100 9999    72  -330. L      72
(G  O E (U) UOp (Sht ) M
10        1   1  -330. N
FBAN
(NFr) O (NTo) Nc C (Vmn (Vmx Bctrl (Qini) T A (Extr
   73      76  1 F 0100 9999    76  -330. L      76
(G  O E (U) UOp (Sht ) M
10        1   1  -330. N
FBAN
(NFr) O (NTo) Nc C (Vmn (Vmx Bctrl (Qini) T A (Extr
   76      74  2 F 0100 9999    76  -330. L      76
(G  O E (U) UOp (Sht ) M
10        1   1  -330. N
FBAN
(NFr) O (NTo) Nc C (Vmn (Vmx Bctrl (Qini) T A (Extr
   76      75  3 F 0100 9999    76  -330. L      76
(G  O E (U) UOp (Sht ) M
10        1   1  -330. N
FBAN
(NFr) O (NTo) Nc C (Vmn (Vmx Bctrl (Qini) T A (Extr
   79            D 0800 1200        -180. L
(G  O E (U) UOp (Sht ) M
10        2   1  -180. S
FBAN
(NFr) O (NTo) Nc C (Vmn (Vmx Bctrl (Qini) T A (Extr
   85            D 0950 1100         840. L
(G  O E (U) UOp (Sht ) M
10        3   3   280. S
20        2   0   350. S
FBAN
(NFr) O (NTo) Nc C (Vmn (Vmx Bctrl (Qini) T A (Extr
   86            D 0950 1050        871.8 L
(G  O E (U) UOp (Sht ) M
10        2   0    59. S
20        3   0  220.8 S
30        4   0   237. S
40        1   1  279.8 S
50        2   0   294. S
60        2   2   296. S
FBAN
(NFr) O (NTo) Nc C (Vmn (Vmx Bctrl (Qini) T A (Extr
   90    3032  1 D 0950 1050    90   -60. L      90
(G  O E (U) UOp (Sht ) M
10        1   1   -60. S
FBAN
(NFr) O (NTo) Nc C (Vmn (Vmx Bctrl (Qini) T A (Extr
  235      92  1 F 0100 9999    92   -73. L      92
(G  O E (U) UOp (Sht ) M
10        1   1   -73. N
FBAN
(NFr) O (NTo) Nc C (Vmn (Vmx Bctrl (Qini) T A (Extr
  235      93  2 F 0100 9999    93  -136. L      93
(G  O E (U) UOp (Sht ) M
10        1   1  -136. N
FBAN
(NFr) O (NTo) Nc C (Vmn (Vmx Bctrl (Qini) T A (Extr
  235      94  3 F 0100 9999    94  -136. L      94
(G  O E (U) UOp (Sht ) M
10        1   1  -136. N
FBAN
(NFr) O (NTo) Nc C (Vmn (Vmx Bctrl (Qini) T A (Extr
   99     101  1 F 0100 9999    99  -90.7 L      99
(G  O E (U) UOp (Sht ) M
10        1   1  -90.7 N
FBAN
(NFr) O (NTo) Nc C (Vmn (Vmx Bctrl (Qini) T A (Extr
  210     100  1 D 1000 1100   100  -100. L     100
(G  O E (U) UOp (Sht ) M
10        1   1  -100. S
FBAN
(NFr) O (NTo) Nc C (Vmn (Vmx Bctrl (Qini) T A (Extr
  100    4598  2 F 0100 9999   100  -100. L     100
(G  O E (U) UOp (Sht ) M
10        1   1  -100. N
FBAN
(NFr) O (NTo) Nc C (Vmn (Vmx Bctrl (Qini) T A (Extr
  100    4598  3 D 1000 1100   100  -100. L     100
(G  O E (U) UOp (Sht ) M
10        1   1  -100. S
FBAN
(NFr) O (NTo) Nc C (Vmn (Vmx Bctrl (Qini) T A (Extr
   99     101  1 F 0100 9999   101 -73.47 L     101
(G  O E (U) UOp (Sht ) M
10        1   1 -73.47 N
FBAN
(NFr) O (NTo) Nc C (Vmn (Vmx Bctrl (Qini) T A (Extr
  101     102  1 F 0100 9999   101   -73. L     101
(G  O E (U) UOp (Sht ) M
10        1   1   -73. N
FBAN
(NFr) O (NTo) Nc C (Vmn (Vmx Bctrl (Qini) T A (Extr
  101     103  1 F 0100 9999   101   -73. L     101
(G  O E (U) UOp (Sht ) M
10        1   1   -73. N
FBAN
(NFr) O (NTo) Nc C (Vmn (Vmx Bctrl (Qini) T A (Extr
  101    4598  1 F 0100 9999   101   -73. L     101
(G  O E (U) UOp (Sht ) M
10        1   1   -73. N
FBAN
(NFr) O (NTo) Nc C (Vmn (Vmx Bctrl (Qini) T A (Extr
  101    4598  2 F 0100 9999   101   -73. L     101
(G  O E (U) UOp (Sht ) M
10        1   1   -73. N
FBAN
(NFr) O (NTo) Nc C (Vmn (Vmx Bctrl (Qini) T A (Extr
  102    1503  1 F 0100 9999   102  -136. L     102
(G  O E (U) UOp (Sht ) M
10        1   1  -136. N
FBAN
(NFr) O (NTo) Nc C (Vmn (Vmx Bctrl (Qini) T A (Extr
  103            D 0950 1100       -248.5 L
(G  O E (U) UOp (Sht ) M
10        1   1 -112.5 S
20        1   1  -136. S
FBAN
(NFr) O (NTo) Nc C (Vmn (Vmx Bctrl (Qini) T A (Extr
  105    9601  1 D 1000 1100   105        L     105
(G  O E (U) UOp (Sht ) M
10        1   0  -136. S
FBAN
(NFr) O (NTo) Nc C (Vmn (Vmx Bctrl (Qini) T A (Extr
...